/*--------------------------------*- C++ -*----------------------------------*\
| =========                 |                                                 |
| \\      /  F ield         | OpenFOAM: The Open Source CFD Toolbox           |
|  \\    /   O peration     | Version:  5.0                                   |
|   \\  /    A nd           | Web:      www.OpenFOAM.org                      |
|    \\/     M anipulation  |                                                 |
\*---------------------------------------------------------------------------*/
FoamFile
{
    version     2.0;
    format      ascii;
    class       volScalarField;
    location    "0";
    object      C;
}
// * * * * * * * * * * * * * * * * * * * * * * * * * * * * * * * * * * * * * //

dimensions      [0 0 0 0 0 0 0];

internalField  #codeStream
{
  codeInclude
  #{
     #include "fvCFD.H"
     #include "Random.H"
     #include "Time.H"
  #};

  codeOptions
  #{
     -I$(LIB_SRC)/finiteVolume/lnInclude \
     -I$(LIB_SRC)/meshTools/lnInclude
  #};

  codeLibs
  #{
     -lmeshTools \
     -lfiniteVolume
  #};

  code
  #{
     const IOdictionary& d = static_cast<const IOdictionary&>(dict);
     const fvMesh& mesh = refCast<const fvMesh>(d.db());

     scalarField C(mesh.nCells(), 0.);
     Random randObj(time(NULL));      
 
     forAll(C, i)
     {
       const scalar x = mesh.C()[i][0];
       const scalar z = mesh.C()[i][2];
       const scalar noise = randObj.scalar01();
       scalar val;
       C[i] = z/50.;
       if (z > 24 & z < 26 & x > 99 & x < 101){
         C[i] = z/50 + 0.1;
       }
       //val = z/10. + 0.1*noise;
       //if(val>1){val = 1;}
       //if(val<0){val = 0;}
       //C[i] = val;
     }

     writeEntry(os, "", C);

  #};
};


boundaryField
{
    left
    {
        type            zeroGradient;
    }
    
    right
    {
        type            zeroGradient;
    }
    
    bottom
    {
        type            fixedValue;
	value           uniform 0.0;
    }
    top
    {
        type            fixedValue;
        value           uniform 1.0;

    }
    front
    {
        type            empty;
    }
    back
    {
        type            empty;
    }
}


// ************************************************************************* //
