/*--------------------------------*- C++ -*----------------------------------*\
| =========                 |                                                 |
| \\      /  F ield         | OpenFOAM: The Open Source CFD Toolbox           |
|  \\    /   O peration     | Version:  5.0                                  |
|   \\  /    A nd           | Web:      www.OpenFOAM.com                      |
|    \\/     M anipulation  |                                                 |
\*---------------------------------------------------------------------------*/
FoamFile
{
  version     2.0;
  format      ascii;
  class       dictionary;
  location    "constant";
  object      transportProperties;
}
// * * * * * * * * * * * * * * * * * * * * * * * * * * * * * * * * * * * * * //
Dm Dm [0 2 -1 0 0 0 0] 6.6e-6;
Ss Ss [0 -1 0 0 0 0 0] 0.0;
eps eps [0 0 0 0 0 0 0] 0.35;

thetamin	thetamin [0 0 0 0 0 0 0]	0.102;
thetamax	thetamax [0 0 0 0 0 0 0]	1.0;//0.368;
	
phase.theta
{
  rho	rho [1 -3 0 0 0 0 0] 	1e3;
  mu	mu [1 -1 -1 0 0 0 0]	1e-3;
}

relativePermeabilityModel  Ippisch;

capillarityModel	Ippisch;

IppischCoeffs
{   
    m	0.5;
    alpha 3.35;
    tau     0.4;
    he 0.0058;
}


porousTransport
{
    phaseName a;
    Kd Kd [-1 3 0 0 0 0 0] 0.0;
    rs rs [1 -3 0 0 0 0 0] 1000;
    epsTotal epsTotal [0 0 0 0 0 0 0] 0.35;
    lambda lambda [0 0 -1 0 0 0 0 ] 0.0; // 0.1 days^-1
}

dispersionModel alphaDispersion;

alphaDispersionCoeffs
{
    tau tau [0 0 0 0 0 0 0] 1;
    alphaL alphaL [0 1 0 0 0 0 0] 0.0;
    alphaT alphaT [0 1 0 0 0 0 0] 0.00;
}

densityModel linearDensity;

linearDensityCoeffs
{
    rho0 rho0 [1 -3 0 0 0 0 0] 1000.;
    beta beta [1 -3 0 0 0 0 0]  0.0;
}


// ************************************************************************* //
